BLACKPEARLROBOT
*SPICE Netlist generated by Advanced Sim server on 2018/5/13 15:31:11

*Schematic Netlist:

.SAVE 0


*Selected Circuit Analyses:
.TRAN 2E-8 5E-6 0 2E-8
.OP

.END
